testData/tamu2000/pfcases_100_zone3/Equ_tx2000_hr_4690_mod_v23_zone3_pslf.raw
0  100.000 
THIS IS A SYNTHETIC POWER SYSTEM MODEL THAT DOES NOT REPRESE
DATA RESEARCH PROJECT AND CONTAINS NO CEII.
1004,  2,  35.012,  -14.735,  0.000,  0.000,  1,  1.02570,  -63.1980,  'O DONNEL',  230.00,  9
1021,  2,  60.861,  -25.320,  0.000,  0.000,  1,  1.00854,  -59.8026,  'BIG SPRI',  13.800,  9
1023,  2,  11.307,  -3.037,  0.000,  0.000,  1,  1.01000,  -60.5047,  'O DONNEL',  13.800,  9
1033,  2,  212.471,  -34.029,  0.000,  0.000,  1,  1.00000,  -58.1902,  'MCCAMEY ',  230.00,  9
1048,  2,  101.085,  1.190,  0.000,  0.000,  1,  1.00000,  -37.1987,  'MONAHANS',  18.000,  9
1049,  2,  72.084,  8.666,  0.000,  0.000,  1,  1.00000,  -30.0442,  'MONAHANS',  18.000,  9
1053,  2,  58.094,  -13.065,  0.000,  0.000,  1,  1.00441,  -51.1847,  'MONAHANS',  230.00,  9
1063,  2,  87.844,  -0.813,  0.000,  0.000,  1,  1.01965,  -50.4678,  'BIG SPRI',  13.800,  9
1070,  2,  69.447,  -2.579,  0.000,  0.000,  1,  1.04000,  -60.1109,  'IRAAN 1 ',  13.800,  9
1072,  3,  73.939,  0.692,  0.000,  0.000,  1,  1.01000,  -46.8886,  'ODESSA 1',  18.000,  9
1073,  2,  51.048,  -0.071,  0.000,  0.000,  1,  1.01000,  -45.9256,  'ODESSA 1',  18.000,  9
1074,  2,  52.809,  2.479,  0.000,  0.000,  1,  1.01000,  -46.3785,  'ODESSA 1',  18.000,  9
1075,  2,  58.516,  2.001,  0.000,  0.000,  1,  1.01000,  -48.3281,  'ODESSA 1',  18.000,  9
1076,  2,  125.743,  -6.677,  0.000,  0.000,  1,  1.01000,  -52.2581,  'ODESSA 1',  18.000,  9
1077,  2,  54.132,  1.959,  0.000,  0.000,  1,  1.01000,  -46.6975,  'ODESSA 1',  18.000,  9
1081,  2,  126.521,  -36.133,  0.000,  0.000,  1,  1.01000,  -54.7116,  'ODESSA 1',  230.00,  9
2004,  2,  127.555,  -20.278,  0.000,  0.000,  2,  1.02000,  -68.5114,  'SAVOY 2 ',  13.800,  11
2005,  2,  111.225,  -17.953,  0.000,  0.000,  2,  1.02000,  -68.3503,  'SAVOY 3 ',  13.800,  11
2006,  2,  75.372,  -11.847,  0.000,  0.000,  2,  1.02000,  -67.7300,  'SAVOY 4 ',  13.800,  11
2024,  2,  93.753,  -12.998,  0.000,  0.000,  2,  1.02104,  -67.2285,  'PARIS 2 ',  13.800,  11
2057,  3,  212.046,  -61.250,  0.000,  0.000,  2,  0.99000,  -64.5031,  'WICHITA ',  18.000,  11
2062,  2,  89.513,  -21.523,  0.000,  0.000,  2,  1.02087,  -65.2403,  'VERNON 1',  18.000,  10
2071,  2,  33.612,  -7.858,  0.000,  0.000,  2,  1.00155,  -63.5370,  'ARCHER 2',  18.000,  11
2078,  2,  70.346,  -16.554,  0.000,  0.000,  2,  1.02000,  -72.6979,  'MUENSTER',  13.800,  11
2100,  2,  13.203,  4.018,  0.000,  0.000,  2,  1.02110,  -62.5720,  'RALLS 1 ',  18.000,  10
2103,  2,  180.570,  -23.037,  0.000,  0.000,  2,  1.02179,  -69.5577,  'SHERMAN ',  20.000,  11
2104,  2,  135.125,  -17.369,  0.000,  0.000,  2,  1.02065,  -69.3858,  'SHERMAN ',  20.000,  11
2105,  2,  84.927,  -11.913,  0.000,  0.000,  2,  1.01800,  -68.9605,  'SHERMAN ',  20.000,  11
2115,  2,  68.640,  -9.617,  0.000,  0.000,  2,  1.01774,  -65.5389,  'PARIS 1 ',  13.800,  11
2116,  2,  115.757,  -14.887,  0.000,  0.000,  2,  1.02171,  -66.8945,  'PARIS 1 ',  13.800,  11
2117,  2,  61.395,  -7.833,  0.000,  0.000,  2,  1.01563,  -65.0922,  'PARIS 1 ',  13.800,  11
2118,  2,  61.639,  -8.213,  0.000,  0.000,  2,  1.01454,  -64.7356,  'PARIS 1 ',  13.800,  11
2119,  2,  93.587,  -12.796,  0.000,  0.000,  2,  1.02076,  -66.5756,  'PARIS 1 ',  13.800,  11
2120,  2,  60.447,  -8.035,  0.000,  0.000,  2,  1.01517,  -64.8780,  'PARIS 1 ',  13.800,  11
2123,  2,  10.802,  5.963,  0.000,  0.000,  2,  1.02620,  -64.1547,  'PANHANDL',  161.00,  10
2127,  2,  138.091,  -160.032,  0.000,  0.000,  2,  1.04172,  -65.4493,  'MIAMI 0 ',  500.00,  10
3017,  2,  48.425,  -4.637,  0.000,  0.000,  3,  1.01000,  -66.8323,  'BLACKWEL',  18.000,  27
3028,  2,  67.714,  5.266,  0.000,  0.000,  3,  1.04000,  -65.7478,  'ABILENE ',  18.000,  27
3039,  2,  26.111,  -1.115,  0.000,  0.000,  3,  1.04000,  -64.2160,  'ROSCOE 2',  13.800,  27
3045,  2,  25.941,  -0.095,  0.000,  0.000,  3,  1.04000,  -59.5545,  'SILVER 4',  13.800,  27
3048,  2,  834.327,  -626.292,  0.000,  0.000,  3,  1.04356,  -66.7874,  'ROSCOE 5',  500.00,  27
3055,  2,  56.863,  -2.223,  0.000,  0.000,  3,  1.04000,  -64.5558,  'WINGATE ',  13.800,  27
3056,  2,  31.556,  0.155,  0.000,  0.000,  3,  1.04000,  -63.9010,  'WINGATE ',  13.800,  27
3057,  2,  32.373,  -0.185,  0.000,  0.000,  3,  1.04000,  -63.9427,  'WINGATE ',  13.800,  27
3060,  2,  19.841,  0.726,  0.000,  0.000,  3,  1.04000,  -61.4167,  'STERLING',  18.000,  27
3061,  2,  26.774,  0.185,  0.000,  0.000,  3,  1.04000,  -61.9676,  'STERLING',  18.000,  27
3062,  2,  45.241,  -3.788,  0.000,  0.000,  3,  1.04000,  -62.6500,  'STERLING',  18.000,  27
3063,  2,  35.176,  -2.183,  0.000,  0.000,  3,  1.04000,  -62.3565,  'STERLING',  18.000,  27
3071,  2,  50.338,  -13.283,  0.000,  0.000,  3,  1.00484,  -66.9858,  'NOLAN 1 ',  24.000,  27
3081,  2,  16.375,  0.033,  0.000,  0.000,  3,  1.04000,  -63.2403,  'HERMLEIG',  20.000,  27
3084,  2,  14.471,  -5.063,  0.000,  0.000,  3,  1.00000,  -62.9795,  'MERKEL 1',  13.800,  27
3092,  2,  35.124,  6.854,  0.000,  0.000,  3,  1.04000,  -65.3954,  'ABILENE ',  13.800,  27
3098,  2,  6.622,  -2.293,  0.000,  0.000,  3,  1.04000,  -61.4171,  'FLUVANNA',  13.800,  27
3106,  3,  55.943,  -8.261,  0.000,  0.000,  3,  1.00000,  -69.7917,  'BUCHANAN',  13.200,  28
3122,  2,  14.032,  -3.172,  0.000,  0.000,  3,  1.00000,  -62.4847,  'ROSCOE 1',  18.000,  27
4010,  2,  40.060,  -6.533,  0.000,  0.000,  4,  1.03000,  -102.5013,  'SARITA 3',  20.000,  21
4026,  2,  264.029,  -11.413,  0.000,  0.000,  4,  1.03000,  -78.0537,  'CHRISTIN',  13.800,  20
4030,  3,  232.762,  -3.260,  0.000,  0.000,  4,  1.01000,  -68.6583,  'FANNIN 2',  13.800,  21
4047,  2,  64.255,  7.653,  0.000,  0.000,  4,  1.02000,  -106.8770,  'FALCON H',  13.800,  19
4050,  2,  24.954,  -14.796,  0.000,  0.000,  4,  1.00113,  -115.1463,  'SEBASTIA',  13.800,  19
4058,  2,  41.685,  7.896,  0.000,  0.000,  4,  1.03000,  -84.5180,  'GREGORY ',  13.800,  21
4059,  2,  48.841,  8.223,  0.000,  0.000,  4,  1.03000,  -84.9359,  'GREGORY ',  13.800,  21
4060,  2,  35.449,  6.509,  0.000,  0.000,  4,  1.03000,  -83.3402,  'GREGORY ',  13.800,  21
4061,  2,  43.722,  8.677,  0.000,  0.000,  4,  1.03000,  -83.2873,  'GREGORY ',  13.800,  21
4062,  2,  42.902,  7.623,  0.000,  0.000,  4,  1.03000,  -82.3203,  'GREGORY ',  13.800,  21
4063,  2,  42.975,  9.122,  0.000,  0.000,  4,  1.03000,  -83.2142,  'GREGORY ',  13.800,  21
4082,  2,  42.089,  3.523,  0.000,  0.000,  4,  1.04000,  -90.6480,  'CORPUS C',  13.800,  21
4083,  2,  44.731,  3.622,  0.000,  0.000,  4,  1.04000,  -91.0227,  'CORPUS C',  13.800,  21
4084,  2,  49.530,  1.283,  0.000,  0.000,  4,  1.04000,  -93.0085,  'CORPUS C',  13.800,  21
4085,  2,  65.732,  1.001,  0.000,  0.000,  4,  1.04000,  -91.8667,  'CORPUS C',  13.800,  21
4105,  2,  149.959,  14.645,  0.000,  0.000,  4,  1.01000,  -92.0524,  'TAFT 2 1',  18.000,  21
4115,  2,  163.963,  -19.789,  0.000,  0.000,  4,  1.04000,  -98.7190,  'LAREDO 1',  13.800,  20
4116,  2,  145.699,  -17.280,  0.000,  0.000,  4,  1.04000,  -98.6686,  'LAREDO 1',  13.800,  20
4142,  2,  114.831,  -11.929,  0.000,  0.000,  4,  1.03973,  -99.8600,  'SARITA 1',  13.800,  21
4153,  2,  315.676,  -16.146,  0.000,  0.000,  4,  1.03076,  -102.1583,  'ARMSTRON',  18.000,  21
4160,  2,  142.997,  29.984,  0.000,  0.000,  4,  1.03000,  -88.2578,  'CORPUS C',  13.800,  21
4161,  2,  74.374,  16.246,  0.000,  0.000,  4,  1.03000,  -85.5167,  'CORPUS C',  13.800,  21
4162,  2,  75.341,  14.787,  0.000,  0.000,  4,  1.03000,  -85.5791,  'CORPUS C',  13.800,  21
4166,  2,  29.036,  -7.435,  0.000,  0.000,  4,  1.00952,  -102.0763,  'SARITA 2',  13.800,  21
4181,  2,  243.551,  11.186,  0.000,  0.000,  4,  1.01426,  -86.8160,  'TAFT 1 0',  230.00,  21
4183,  2,  371.350,  -19.194,  0.000,  0.000,  4,  1.01590,  -102.6820,  'SAN PERL',  230.00,  19
4192,  2,  899.794,  71.288,  0.000,  0.000,  4,  1.02000,  -103.7866,  'BROWNSVI',  230.00,  19
4194,  2,  812.446,  -134.534,  0.000,  0.000,  4,  1.00969,  -116.6151,  'SEBASTIA',  115.00,  19
5020,  2,  70.875,  -16.718,  0.000,  0.000,  5,  1.02261,  -66.4308,  'JACKSBOR',  13.800,  12
5037,  2,  286.118,  1.728,  0.000,  0.000,  5,  1.02000,  -68.7249,  'DALLAS 1',  13.200,  16
5038,  2,  276.999,  2.577,  0.000,  0.000,  5,  1.02000,  -68.6592,  'DALLAS 1',  13.200,  16
5039,  2,  664.594,  -10.694,  0.000,  0.000,  5,  1.02194,  -69.8520,  'DALLAS 1',  13.200,  16
5040,  2,  215.981,  2.774,  0.000,  0.000,  5,  1.02000,  -68.0002,  'DALLAS 1',  13.200,  16
5041,  2,  305.329,  -0.698,  0.000,  0.000,  5,  1.02000,  -68.8487,  'DALLAS 1',  13.200,  16
5042,  2,  258.912,  3.220,  0.000,  0.000,  5,  1.02000,  -68.5070,  'DALLAS 1',  13.200,  16
5057,  2,  153.403,  -26.362,  0.000,  0.000,  5,  1.02140,  -64.4936,  'GRAHAM 2',  13.800,  12
5058,  2,  116.759,  -18.068,  0.000,  0.000,  5,  1.01861,  -63.4339,  'GRAHAM 3',  13.800,  12
5067,  2,  432.303,  -2.856,  0.000,  0.000,  5,  1.03000,  -68.0756,  'ARLINGTO',  13.800,  17
5068,  2,  411.806,  -2.801,  0.000,  0.000,  5,  1.03000,  -67.9479,  'ARLINGTO',  13.800,  17
5069,  2,  388.381,  -2.241,  0.000,  0.000,  5,  1.03000,  -67.7772,  'ARLINGTO',  13.800,  17
5166,  2,  191.005,  -13.591,  0.000,  0.000,  5,  1.04000,  -70.1950,  'DENTON 1',  13.800,  17
5198,  2,  173.008,  -29.451,  0.000,  0.000,  5,  1.02325,  -67.0391,  'BRYSON 1',  18.000,  12
5206,  2,  131.033,  -12.502,  0.000,  0.000,  5,  1.01999,  -65.9106,  'POOLVILL',  13.800,  12
5207,  2,  220.365,  -24.301,  0.000,  0.000,  5,  1.02273,  -66.9910,  'POOLVILL',  13.800,  12
5208,  2,  177.291,  -18.513,  0.000,  0.000,  5,  1.02190,  -66.6679,  'POOLVILL',  13.800,  12
5238,  2,  184.193,  -75.868,  0.000,  0.000,  5,  1.02687,  -66.5396,  'OLNEY 1 ',  18.000,  12
5243,  2,  151.781,  -15.794,  0.000,  0.000,  5,  1.02779,  -70.8792,  'GOLDTHWA',  13.800,  18
5262,  2,  388.603,  13.899,  0.000,  0.000,  5,  1.01100,  -62.7425,  'GLEN ROS',  13.800,  18
5263,  2,  524.671,  15.949,  0.000,  0.000,  5,  1.01372,  -63.9787,  'GLEN ROS',  13.800,  18
5281,  2,  182.412,  7.069,  0.000,  0.000,  5,  1.01210,  -70.7229,  'TEMPLE 1',  13.800,  13
5282,  2,  215.114,  8.079,  0.000,  0.000,  5,  1.01313,  -70.9878,  'TEMPLE 1',  13.800,  13
5283,  2,  283.968,  8.743,  0.000,  0.000,  5,  1.01451,  -71.3274,  'TEMPLE 1',  13.800,  13
5298,  2,  376.194,  -19.793,  0.000,  0.000,  5,  1.03710,  -70.7370,  'MCKINNEY',  13.800,  16
5299,  2,  161.319,  -1.548,  0.000,  0.000,  5,  1.04000,  -70.3316,  'MCKINNEY',  13.800,  16
5300,  2,  196.371,  -3.354,  0.000,  0.000,  5,  1.04000,  -70.4668,  'MCKINNEY',  13.800,  16
5302,  2,  226.951,  4.045,  0.000,  0.000,  5,  1.04000,  -67.9806,  'MCKINNEY',  13.800,  16
5303,  2,  312.057,  -4.041,  0.000,  0.000,  5,  1.04000,  -68.7788,  'MCKINNEY',  13.800,  16
5319,  2,  203.424,  -4.781,  0.000,  0.000,  5,  1.01313,  -66.9692,  'GRANBURY',  13.200,  18
5320,  2,  185.899,  -5.911,  0.000,  0.000,  5,  1.01279,  -66.7967,  'GRANBURY',  13.200,  18
5321,  2,  210.365,  -4.681,  0.000,  0.000,  5,  1.01343,  -67.0387,  'GRANBURY',  13.200,  18
5324,  2,  239.080,  6.464,  0.000,  0.000,  5,  1.04000,  -68.1476,  'DALLAS 2',  13.800,  17
5325,  2,  238.977,  8.217,  0.000,  0.000,  5,  1.04000,  -68.1419,  'DALLAS 2',  13.800,  17
5326,  2,  701.387,  -24.244,  0.000,  0.000,  5,  1.03957,  -70.2130,  'DALLAS 2',  13.800,  17
5343,  2,  151.154,  2.014,  0.000,  0.000,  5,  1.04000,  -72.9964,  'LEWISVIL',  13.800,  17
5360,  3,  198.881,  6.086,  0.000,  0.000,  5,  1.01000,  -69.6727,  'RIESEL 1',  13.800,  13
5364,  2,  231.779,  -18.733,  0.000,  0.000,  5,  1.02206,  -67.5444,  'BRIDGEPO',  13.800,  12
5365,  2,  120.414,  -8.458,  0.000,  0.000,  5,  1.01952,  -66.6770,  'BRIDGEPO',  13.800,  12
5366,  2,  110.613,  -8.649,  0.000,  0.000,  5,  1.01894,  -66.4461,  'BRIDGEPO',  13.800,  12
5367,  2,  113.568,  -8.647,  0.000,  0.000,  5,  1.01902,  -66.5028,  'BRIDGEPO',  13.800,  12
5368,  2,  156.219,  -12.100,  0.000,  0.000,  5,  1.02088,  -67.1208,  'BRIDGEPO',  13.800,  12
5369,  2,  105.759,  -8.248,  0.000,  0.000,  5,  1.01865,  -66.3455,  'BRIDGEPO',  13.800,  12
5382,  2,  227.934,  14.626,  0.000,  0.000,  5,  1.04000,  -69.6737,  'ENNIS 2 ',  13.800,  14
5383,  2,  199.335,  14.843,  0.000,  0.000,  5,  1.04000,  -69.4803,  'ENNIS 3 ',  13.800,  14
5399,  2,  135.217,  -31.975,  0.000,  0.000,  5,  1.04000,  -66.7146,  'ALBANY 1',  13.800,  15
5415,  2,  82.602,  -13.364,  0.000,  0.000,  5,  1.02492,  -66.8372,  'PALO PIN',  13.800,  12
5416,  2,  81.780,  -12.993,  0.000,  0.000,  5,  1.02480,  -66.8239,  'PALO PIN',  13.800,  12
5417,  2,  90.857,  -14.613,  0.000,  0.000,  5,  1.02530,  -66.9719,  'PALO PIN',  13.800,  12
5418,  2,  93.380,  -16.218,  0.000,  0.000,  5,  1.02576,  -67.0331,  'PALO PIN',  13.800,  12
5419,  2,  151.872,  -26.156,  0.000,  0.000,  5,  1.02714,  -67.4610,  'PALO PIN',  13.800,  12
5444,  2,  1512.504,  -94.113,  0.000,  0.000,  5,  1.01847,  -68.9587,  'MIDLOTHI',  500.00,  17
6006,  2,  84.343,  -1.946,  0.000,  0.000,  6,  1.04000,  -68.4254,  'BASTROP ',  13.800,  25
6007,  2,  132.816,  -2.323,  0.000,  0.000,  6,  1.04000,  -67.6236,  'BASTROP ',  13.800,  25
6008,  2,  73.694,  0.259,  0.000,  0.000,  6,  1.04000,  -68.3396,  'BASTROP ',  13.800,  25
6009,  2,  50.481,  1.959,  0.000,  0.000,  6,  1.04000,  -67.6018,  'BASTROP ',  13.800,  25
6010,  2,  64.701,  -0.096,  0.000,  0.000,  6,  1.04000,  -68.1598,  'BASTROP ',  13.800,  25
6042,  2,  33.638,  4.608,  0.000,  0.000,  6,  1.04000,  -70.1410,  'AUSTIN 3',  13.800,  23
6062,  1,  341.492,  5.954,  0.000,  0.000,  6,  1.01874,  -70.9623,  'BRENHAM ',  500.00,  25
6069,  2,  205.575,  -4.521,  0.000,  0.000,  6,  1.03000,  -70.2827,  'MARION 1',  18.000,  22
6070,  2,  86.860,  -0.191,  0.000,  0.000,  6,  1.03000,  -69.0631,  'MARION 1',  18.000,  22
6071,  2,  258.996,  -5.487,  0.000,  0.000,  6,  1.03000,  -70.4599,  'MARION 1',  18.000,  22
6072,  2,  103.182,  0.247,  0.000,  0.000,  6,  1.03000,  -69.4336,  'MARION 1',  18.000,  22
6073,  2,  157.378,  -2.678,  0.000,  0.000,  6,  1.03000,  -69.9999,  'MARION 1',  18.000,  22
6074,  2,  158.675,  -3.736,  0.000,  0.000,  6,  1.03000,  -70.0096,  'MARION 1',  18.000,  22
6078,  2,  42.471,  -21.685,  0.000,  0.000,  6,  1.00715,  -67.8339,  'LA GRANG',  22.000,  25
6079,  2,  84.449,  -40.812,  0.000,  0.000,  6,  1.01144,  -68.4280,  'LA GRANG',  22.000,  25
6080,  2,  63.566,  -31.014,  0.000,  0.000,  6,  1.01003,  -68.2407,  'LA GRANG',  22.000,  25
6106,  2,  86.507,  -17.735,  0.000,  0.000,  6,  1.02457,  -68.9400,  'WINCHEST',  13.800,  25
6110,  2,  204.536,  1.658,  0.000,  0.000,  6,  1.04000,  -70.0154,  'ROCKDALE',  13.800,  25
6111,  2,  207.316,  2.163,  0.000,  0.000,  6,  1.04000,  -69.9037,  'ROCKDALE',  13.800,  25
6145,  2,  201.979,  15.447,  0.000,  0.000,  6,  1.03000,  -67.1018,  'SAN ANTO',  13.800,  22
6146,  2,  209.227,  15.754,  0.000,  0.000,  6,  1.03000,  -67.2611,  'SAN ANTO',  13.800,  22
6147,  3,  234.864,  12.225,  0.000,  0.000,  6,  1.03000,  -68.9339,  'SAN ANTO',  13.800,  22
6148,  2,  377.111,  10.443,  0.000,  0.000,  6,  1.03000,  -70.3437,  'SAN ANTO',  13.800,  22
6149,  2,  695.784,  12.707,  0.000,  0.000,  6,  1.03000,  -70.8586,  'SAN ANTO',  13.800,  22
6164,  2,  132.192,  -4.344,  0.000,  0.000,  6,  1.03000,  -68.6868,  'SEGUIN 1',  13.800,  22
6165,  2,  119.232,  -4.207,  0.000,  0.000,  6,  1.03000,  -68.5140,  'SEGUIN 1',  13.800,  22
6166,  2,  269.116,  -13.641,  0.000,  0.000,  6,  1.03000,  -69.4893,  'SEGUIN 1',  13.800,  22
6167,  2,  150.032,  -5.456,  0.000,  0.000,  6,  1.03000,  -68.8744,  'SEGUIN 1',  13.800,  22
6188,  1,  226.993,  -6.597,  0.000,  0.000,  6,  0.99665,  -70.9128,  'COLUMBUS',  230.00,  25
6195,  1,  56.724,  3.791,  0.000,  0.000,  6,  0.97221,  -78.3645,  'INDUSTRY',  115.00,  25
6213,  2,  35.155,  -1.637,  0.000,  0.000,  6,  1.04000,  -70.5169,  'MARBLE F',  13.800,  23
6214,  2,  68.953,  -3.242,  0.000,  0.000,  6,  1.04000,  -69.6298,  'MARBLE F',  13.800,  23
6215,  2,  271.545,  -41.911,  0.000,  0.000,  6,  1.04000,  -71.0115,  'MARBLE F',  13.800,  23
6216,  2,  110.586,  -12.319,  0.000,  0.000,  6,  1.04000,  -70.4134,  'MARBLE F',  13.800,  23
6243,  2,  159.378,  4.150,  0.000,  0.000,  6,  1.04000,  -69.8432,  'ELMENDOR',  13.800,  22
6244,  2,  180.998,  3.799,  0.000,  0.000,  6,  1.04000,  -68.6012,  'ELMENDOR',  13.800,  22
6245,  2,  212.826,  2.258,  0.000,  0.000,  6,  1.04000,  -69.0052,  'ELMENDOR',  13.800,  22
6246,  2,  385.073,  -9.790,  0.000,  0.000,  6,  1.04000,  -70.0732,  'ELMENDOR',  13.800,  22
6247,  2,  324.295,  -8.382,  0.000,  0.000,  6,  1.04000,  -70.5931,  'ELMENDOR',  13.800,  22
6248,  2,  164.310,  1.366,  0.000,  0.000,  6,  1.04000,  -69.9701,  'ELMENDOR',  13.800,  22
6249,  2,  133.291,  6.383,  0.000,  0.000,  6,  1.04000,  -69.4224,  'ELMENDOR',  13.800,  22
6257,  2,  125.696,  11.106,  0.000,  0.000,  6,  1.03165,  -69.9842,  'AUSTIN 2',  13.800,  23
6258,  2,  70.368,  5.286,  0.000,  0.000,  6,  1.02951,  -69.1981,  'AUSTIN 2',  13.800,  23
6260,  2,  139.968,  10.813,  0.000,  0.000,  6,  1.03129,  -69.8112,  'AUSTIN 2',  13.800,  23
6295,  2,  144.613,  3.949,  0.000,  0.000,  6,  1.03287,  -69.7761,  'CEDAR CR',  13.800,  23
6296,  2,  169.019,  4.152,  0.000,  0.000,  6,  1.03313,  -69.8802,  'CEDAR CR',  13.800,  23
6297,  2,  68.730,  2.597,  0.000,  0.000,  6,  1.03005,  -68.8239,  'CEDAR CR',  13.800,  23
6302,  2,  109.026,  -3.070,  0.000,  0.000,  6,  1.02126,  -68.5577,  'NEW BRAU',  22.000,  22
6303,  2,  309.940,  -7.264,  0.000,  0.000,  6,  1.02539,  -69.9533,  'NEW BRAU',  22.000,  22
6304,  2,  129.145,  -3.334,  0.000,  0.000,  6,  1.02235,  -68.8967,  'NEW BRAU',  22.000,  22
6305,  2,  107.861,  -3.355,  0.000,  0.000,  6,  1.02131,  -68.5314,  'NEW BRAU',  22.000,  22
6341,  1,  108.046,  -21.607,  0.000,  0.000,  6,  1.00391,  -79.5710,  'CHAPPELL',  115.00,  25
6349,  2,  1595.194,  -47.451,  0.000,  0.000,  6,  1.04000,  -71.4222,  'AUSTIN 1',  500.00,  23
7002,  1,  0.000,  0.000,  0.000,  0.000,  7,  1.03387,  -67.5980,  'PASADENA',  500.00,  4
7003,  1,  0.000,  0.000,  0.000,  0.000,  7,  1.02421,  -70.9693,  'PASADENA',  230.00,  4
7004,  1,  0.000,  0.000,  0.000,  0.000,  7,  1.02089,  -74.7540,  'PASADENA',  115.00,  4
7005,  2,  0.000,  0.000,  0.000,  0.000,  7,  1.04000,  -66.0442,  'PASADENA',  13.800,  4
7006,  2,  0.000,  0.000,  0.000,  0.000,  7,  1.04000,  -66.7147,  'PASADENA',  13.800,  4
7007,  2,  0.000,  0.000,  0.000,  0.000,  7,  1.04000,  -66.2680,  'PASADENA',  13.800,  4
7008,  2,  0.000,  0.000,  0.000,  0.000,  7,  1.04000,  -66.2005,  'PASADENA',  13.800,  4
7009,  2,  0.000,  0.000,  0.000,  0.000,  7,  1.04000,  -66.0415,  'PASADENA',  13.800,  4
7010,  1,  0.000,  0.000,  0.000,  0.000,  7,  0.98931,  -80.7625,  'PRAIRIE ',  115.00,  5
7011,  1,  0.000,  0.000,  0.000,  0.000,  7,  1.02385,  -79.9846,  'CONROE 1',  115.00,  5
7012,  1,  0.000,  0.000,  0.000,  0.000,  7,  0.98280,  -77.5694,  'SIMONTON',  115.00,  3
7013,  1,  0.000,  0.000,  0.000,  0.000,  7,  1.00360,  -79.2831,  'HOUSTON ',  115.00,  5
...
 0 /End of Bus data, Begin Generator data
1004,  '1',  40.481,  -30.380,  44.940,  -30.380,  1.01000,  0,  253.200,  0.00000,  1.00000,  0.00000,  0.00000,  1.00000,  1,  100.0,  211.000,  63.300
1021,  '1',  38.276,  -28.730,  42.490,  -28.730,  1.00000,  0,  239.400,  0.00000,  1.00000,  0.00000,  0.00000,  1.00000,  1,  100.0,  199.500,  59.850
1023,  '1',  34.533,  -12.530,  38.340,  -25.920,  1.01000,  0,  216.000,  0.00000,  1.00000,  0.00000,  0.00000,  1.00000,  1,  100.0,  180.000,  54.000
1033,  '1',  53.335,  -38.135,  59.210,  -40.030,  1.00000,  0,  333.600,  0.00000,  1.00000,  0.00000,  0.00000,  1.00000,  1,  100.0,  278.000,  83.400
1048,  '1',  234.140,  11.248,  165.530,  -36.100,  1.00000,  0,  390.240,  0.00000,  0.10170,  0.00000,  0.00000,  1.00000,  1,  100.0,  325.200,  97.560
1049,  '1',  234.140,  30.195,  165.530,  -36.100,  1.00000,  0,  390.240,  0.00000,  0.13490,  0.00000,  0.00000,  1.00000,  1,  100.0,  325.200,  97.560
1053,  '1',  103.700,  -19.850,  91.010,  -19.850,  1.00000,  0,  214.560,  0.00000,  0.16870,  0.00000,  0.00000,  1.00000,  1,  100.0,  178.800,  53.640
1063,  '1',  144.302,  0.000,  0.000,  0.000,  1.01000,  0,  276.000,  0.00000,  1.00000,  0.00000,  0.00000,  1.00000,  1,  100.0,  230.000,  69.000
1070,  '1',  30.793,  27.724,  34.190,  -23.110,  1.04000,  0,  192.600,  0.00000,  1.00000,  0.00000,  0.00000,  1.00000,  1,  100.0,  160.500,  48.150
1072,  '1',  190.860,  6.797,  97.800,  -21.330,  1.01000,  0,  230.560,  0.00000,  0.30820,  0.00000,  0.00000,  1.00000,  1,  100.0,  192.130,  57.640
1073,  '1',  138.330,  0.651,  97.800,  -21.330,  1.01000,  0,  230.560,  0.00000,  0.19480,  0.00000,  0.00000,  1.00000,  1,  100.0,  192.130,  57.640
1074,  '1',  138.330,  7.618,  97.800,  -21.330,  1.01000,  0,  230.560,  0.00000,  0.20960,  0.00000,  0.00000,  1.00000,  1,  100.0,  192.130,  57.640
1075,  '1',  138.330,  7.036,  97.800,  -21.330,  1.01000,  0,  230.560,  0.00000,  0.12370,  0.00000,  0.00000,  1.00000,  1,  100.0,  192.130,  57.640
1076,  '1',  138.330,  6.398,  97.800,  -21.330,  1.01000,  0,  230.560,  0.00000,  0.10660,  0.00000,  0.00000,  1.00000,  1,  100.0,  192.130,  57.640
1077,  '1',  138.330,  6.336,  97.800,  -21.330,  1.01000,  0,  230.560,  0.00000,  0.15380,  0.00000,  0.00000,  1.00000,  1,  100.0,  192.130,  57.640
1081,  '1',  206.280,  9.985,  145.830,  -31.800,  1.01000,  0,  343.800,  0.00000,  0.14960,  0.00000,  0.00000,  1.00000,  1,  100.0,  286.500,  85.950
2004,  '1',  117.540,  -33.586,  199.430,  -43.490,  1.02000,  0,  470.160,  0.00000,  0.10640,  0.00000,  0.00000,  1.00000,  1,  100.0,  391.800,  117.540
2005,  '1',  117.540,  -29.174,  199.430,  -43.490,  1.02000,  0,  470.160,  0.00000,  0.22750,  0.00000,  0.00000,  1.00000,  1,  100.0,  391.800,  117.540
2006,  '1',  117.540,  -17.751,  199.430,  -43.490,  1.02000,  0,  470.160,  0.00000,  0.20040,  0.00000,  0.00000,  1.00000,  1,  100.0,  391.800,  117.540
2024,  '1',  96.670,  -18.500,  84.830,  -18.500,  1.02000,  0,  200.000,  0.00000,  0.15080,  0.00000,  0.00000,  1.00000,  1,  100.0,  166.670,  50.000
2057,  '1',  309.871,  -219.399,  335.520,  -87.840,  0.99000,  0,  864.000,  0.00000,  0.17700,  0.00000,  0.00000,  1.00000,  1,  100.0,  720.000,  216.000
2062,  '1',  86.574,  -19.500,  28.840,  -19.500,  1.02000,  0,  162.480,  0.00000,  1.00000,  0.00000,  0.00000,  1.00000,  1,  100.0,  135.400,  40.620
2071,  '1',  60.834,  -21.600,  31.950,  -21.600,  1.00000,  0,  180.000,  0.00000,  1.00000,  0.00000,  0.00000,  1.00000,  1,  100.0,  150.000,  45.000
2078,  '1',  45.628,  -11.297,  23.960,  -16.200,  1.02000,  0,  135.000,  0.00000,  1.00000,  0.00000,  0.00000,  1.00000,  1,  100.0,  112.500,  33.750
2100,  '1',  69.962,  -21.600,  31.950,  -21.600,  1.02000,  0,  180.000,  0.00000,  1.00000,  0.00000,  0.00000,  1.00000,  1,  100.0,  150.000,  45.000
2103,  '1',  80.320,  -29.720,  136.280,  -29.720,  1.00000,  0,  321.280,  0.00000,  0.33430,  0.00000,  0.00000,  1.00000,  1,  100.0,  267.730,  80.320
2104,  '1',  80.320,  -29.720,  136.280,  -29.720,  1.00000,  0,  321.280,  0.00000,  0.31470,  0.00000,  0.00000,  1.00000,  1,  100.0,  267.730,  80.320
2105,  '1',  80.320,  -29.720,  136.280,  -29.720,  1.00000,  0,  321.280,  0.00000,  0.14160,  0.00000,  0.00000,  1.00000,  1,  100.0,  267.730,  80.320
2115,  '1',  133.000,  -20.500,  94.020,  -20.500,  1.00000,  0,  221.660,  0.00000,  0.14250,  0.00000,  0.00000,  1.00000,  1,  100.0,  184.720,  55.410
2116,  '1',  133.000,  -20.500,  94.020,  -20.500,  1.00000,  0,  221.660,  0.00000,  0.18690,  0.00000,  0.00000,  1.00000,  1,  100.0,  184.720,  55.410
2117,  '1',  133.000,  -20.500,  94.020,  -20.500,  1.00000,  0,  221.660,  0.00000,  0.32540,  0.00000,  0.00000,  1.00000,  1,  100.0,  184.720,  55.410
2118,  '1',  133.000,  -20.500,  94.020,  -20.500,  1.00000,  0,  221.660,  0.00000,  0.10610,  0.00000,  0.00000,  1.00000,  1,  100.0,  184.720,  55.410
2119,  '1',  133.000,  -20.500,  94.020,  -20.500,  1.00000,  0,  221.660,  0.00000,  0.13600,  0.00000,  0.00000,  1.00000,  1,  100.0,  184.720,  55.410
2120,  '1',  133.000,  -20.500,  94.020,  -20.500,  1.01000,  0,  221.660,  0.00000,  0.20680,  0.00000,  0.00000,  1.00000,  1,  100.0,  184.720,  55.410
2123,  '1',  46.545,  -26.160,  38.700,  -26.160,  1.00000,  0,  218.040,  0.00000,  1.00000,  0.00000,  0.00000,  1.00000,  1,  100.0,  181.700,  54.510
2127,  '1',  94.596,  -41.560,  61.470,  -41.560,  1.04000,  0,  346.320,  0.00000,  1.00000,  0.00000,  0.00000,  1.00000,  1,  100.0,  288.600,  86.580
3017,  '1',  32.520,  -12.384,  36.100,  -24.410,  1.01000,  0,  203.400,  0.00000,  1.00000,  0.00000,  0.00000,  1.00000,  1,  100.0,  169.500,  50.850
3028,  '1',  81.112,  8.677,  42.600,  -28.800,  1.04000,  0,  240.000,  0.00000,  1.00000,  0.00000,  0.00000,  1.00000,  1,  100.0,  200.000,  60.000
3039,  '1',  40.097,  8.469,  44.520,  -30.100,  1.04000,  0,  250.800,  0.00000,  1.00000,  0.00000,  0.00000,  1.00000,  1,  100.0,  209.000,  62.700
3045,  '1',  134.100,  5.634,  227.520,  -49.620,  1.04000,  0,  536.400,  0.00000,  0.14470,  0.00000,  0.00000,  1.00000,  1,  100.0,  447.000,  134.100
3048,  '1',  46.236,  -34.700,  51.330,  -34.700,  1.04000,  0,  289.200,  0.00000,  1.00000,  0.00000,  0.00000,  1.00000,  1,  100.0,  241.000,  72.300
3055,  '1',  47.037,  11.396,  52.220,  -35.300,  1.04000,  0,  294.200,  0.00000,  1.00000,  0.00000,  0.00000,  1.00000,  1,  100.0,  245.170,  73.550
3056,  '1',  47.037,  6.158,  52.220,  -35.300,  1.04000,  0,  294.200,  0.00000,  1.00000,  0.00000,  0.00000,  1.00000,  1,  100.0,  245.170,  73.550
3057,  '1',  47.037,  5.846,  52.220,  -35.300,  1.04000,  0,  294.200,  0.00000,  1.00000,  0.00000,  0.00000,  1.00000,  1,  100.0,  245.170,  73.550
3060,  '1',  31.776,  3.608,  35.280,  -23.850,  1.04000,  0,  198.750,  0.00000,  1.00000,  0.00000,  0.00000,  1.00000,  1,  100.0,  165.630,  49.690
3061,  '1',  31.776,  4.970,  35.280,  -23.850,  1.04000,  0,  198.750,  0.00000,  1.00000,  0.00000,  0.00000,  1.00000,  1,  100.0,  165.630,  49.690
3062,  '1',  31.776,  9.406,  35.280,  -23.850,  1.04000,  0,  198.750,  0.00000,  1.00000,  0.00000,  0.00000,  1.00000,  1,  100.0,  165.630,  49.690
3063,  '1',  31.776,  6.513,  35.280,  -23.850,  1.04000,  0,  198.750,  0.00000,  1.00000,  0.00000,  0.00000,  1.00000,  1,  100.0,  165.630,  49.690
3071,  '1',  32.653,  -24.510,  36.250,  -24.510,  1.00000,  0,  204.240,  0.00000,  1.00000,  0.00000,  0.00000,  1.00000,  1,  100.0,  170.200,  51.060
3081,  '1',  47.771,  4.228,  53.040,  -35.860,  1.04000,  0,  298.800,  0.00000,  1.00000,  0.00000,  0.00000,  1.00000,  1,  100.0,  249.000,  74.700
3084,  '1',  44.604,  -33.192,  49.520,  -33.480,  1.00000,  0,  279.000,  0.00000,  1.00000,  0.00000,  0.00000,  1.00000,  1,  100.0,  232.500,  69.750
3092,  '1',  38.370,  7.542,  42.600,  -28.800,  1.04000,  0,  240.000,  0.00000,  1.00000,  0.00000,  0.00000,  1.00000,  1,  100.0,  200.000,  60.000
3098,  '1',  30.696,  3.865,  34.080,  -23.040,  1.04000,  0,  192.000,  0.00000,  1.00000,  0.00000,  0.00000,  1.00000,  1,  100.0,  160.000,  48.000
3106,  '1',  60.363,  -17.174,  62.477,  -2.690,  1.00000,  0,  65.880,  0.00000,  0.29220,  0.00000,  0.00000,  1.00000,  1,  100.0,  162.800,  0.000
3122,  '1',  37.795,  -16.334,  41.960,  -28.370,  1.00000,  0,  236.400,  0.00000,  1.00000,  0.00000,  0.00000,  1.00000,  1,  100.0,  197.000,  59.100
4010,  '1',  38.677,  17.409,  42.940,  -29.030,  1.03000,  0,  241.920,  0.00000,  1.00000,  0.00000,  0.00000,  1.00000,  1,  100.0,  201.600,  60.480
4026,  '1',  123.000,  28.580,  191.060,  -50.020,  1.03000,  0,  492.000,  0.00000,  0.32770,  0.00000,  0.00000,  1.00000,  1,  100.0,  410.000,  123.000
4030,  '1',  224.596,  32.367,  290.040,  -75.930,  1.01000,  0,  746.880,  0.00000,  0.27970,  0.00000,  0.00000,  1.00000,  1,  100.0,  622.400,  186.720
4047,  '1',  45.123,  9.189,  75.102,  -3.230,  1.02000,  0,  79.200,  0.00000,  0.32270,  0.00000,  0.00000,  1.00000,  1,  100.0,  195.700,  0.000
4050,  '1',  38.370,  -28.800,  42.600,  -28.800,  1.00000,  0,  240.000,  0.00000,  1.00000,  0.00000,  0.00000,  1.00000,  1,  100.0,  200.000,  60.000
4058,  '1',  83.520,  18.965,  73.300,  -15.980,  1.03000,  0,  172.800,  0.00000,  0.13700,  0.00000,  0.00000,  1.00000,  1,  100.0,  144.000,  43.200
4059,  '1',  83.520,  20.722,  73.300,  -15.980,  1.03000,  0,  172.800,  0.00000,  0.15140,  0.00000,  0.00000,  1.00000,  1,  100.0,  144.000,  43.200
4060,  '1',  83.520,  13.825,  73.300,  -15.980,  1.03000,  0,  172.800,  0.00000,  0.13940,  0.00000,  0.00000,  1.00000,  1,  100.0,  144.000,  43.200
4061,  '1',  124.080,  20.272,  87.720,  -19.130,  1.03000,  0,  206.800,  0.00000,  0.21560,  0.00000,  0.00000,  1.00000,  1,  100.0,  172.330,  51.700
4062,  '1',  124.080,  15.692,  87.720,  -19.130,  1.03000,  0,  206.800,  0.00000,  0.25930,  0.00000,  0.00000,  1.00000,  1,  100.0,  172.330,  51.700
4063,  '1',  124.080,  21.599,  87.720,  -19.130,  1.03000,  0,  206.800,  0.00000,  0.14410,  0.00000,  0.00000,  1.00000,  1,  100.0,  172.330,  51.700
4082,  '1',  175.250,  29.109,  123.890,  -27.020,  1.04000,  0,  292.080,  0.00000,  0.13810,  0.00000,  0.00000,  1.00000,  1,  100.0,  243.400,  73.020
4083,  '1',  175.250,  30.781,  123.890,  -27.020,  1.04000,  0,  292.080,  0.00000,  0.15700,  0.00000,  0.00000,  1.00000,  1,  100.0,  243.400,  73.020
4084,  '1',  175.250,  52.866,  123.890,  -27.020,  1.04000,  0,  292.080,  0.00000,  0.19110,  0.00000,  0.00000,  1.00000,  1,  100.0,  243.400,  73.020
4085,  '1',  302.720,  62.307,  179.170,  -39.070,  1.04000,  0,  422.400,  0.00000,  0.31920,  0.00000,  0.00000,  1.00000,  1,  100.0,  352.000,  105.600
4105,  '1',  73.001,  10.542,  38.340,  -25.920,  1.01000,  0,  216.000,  0.00000,  1.00000,  0.00000,  0.00000,  1.00000,  1,  100.0,  180.000,  54.000
4115,  '1',  39.540,  34.490,  67.090,  -14.630,  1.04000,  0,  158.160,  0.00000,  0.11310,  0.00000,  0.00000,  1.00000,  1,  100.0,  131.800,  39.540
4116,  '1',  39.540,  32.395,  67.090,  -14.630,  1.04000,  0,  158.160,  0.00000,  0.15150,  0.00000,  0.00000,  1.00000,  1,  100.0,  131.800,  39.540
4142,  '1',  36.068,  40.040,  40.040,  -27.070,  1.04000,  0,  225.600,  0.00000,  1.00000,  0.00000,  0.00000,  1.00000,  1,  100.0,  188.000,  56.400
4153,  '1',  54.332,  60.320,  60.320,  -40.780,  1.04000,  0,  339.840,  0.00000,  1.00000,  0.00000,  0.00000,  1.00000,  1,  100.0,  283.200,  84.960
4160,  '1',  142.390,  56.471,  100.660,  -21.950,  1.03000,  0,  237.320,  0.00000,  0.18820,  0.00000,  0.00000,  1.00000,  1,  100.0,  197.770,  59.330
4161,  '1',  142.390,  27.004,  100.660,  -21.950,  1.03000,  0,  237.320,  0.00000,  0.12390,  0.00000,  0.00000,  1.00000,  1,  100.0,  197.770,  59.330
4162,  '1',  142.390,  24.217,  100.660,  -21.950,  1.03000,  0,  237.320,  0.00000,  0.17220,  0.00000,  0.00000,  1.00000,  1,  100.0,  197.770,  59.330
4166,  '1',  38.562,  -28.940,  42.810,  -28.940,  1.00000,  0,  241.200,  0.00000,  1.00000,  0.00000,  0.00000,  1.00000,  1,  100.0,  201.000,  60.300
4181,  '1',  81.150,  42.620,  42.620,  -28.810,  1.04000,  0,  240.120,  0.00000,  1.00000,  0.00000,  0.00000,  1.00000,  1,  100.0,  200.100,  60.030
4183,  '1',  38.946,  43.240,  43.240,  -29.230,  1.03000,  0,  243.600,  0.00000,  1.00000,  0.00000,  0.00000,  1.00000,  1,  100.0,  203.000,  60.900
4192,  '1',  973.650,  93.220,  688.320,  -150.120,  1.02000,  0,  1622.76,  0.00000,  0.14340,  0.00000,  0.00000,  1.00000,  1,  100.0,  1352.31,  405.690
4194,  '1',  38.677,  42.940,  42.940,  -29.030,  1.02000,  0,  241.920,  0.00000,  1.00000,  0.00000,  0.00000,  1.00000,  1,  100.0,  201.600,  60.480
5020,  '1',  48.667,  -17.280,  25.560,  -17.280,  1.00000,  0,  144.000,  0.00000,  1.00000,  0.00000,  0.00000,  1.00000,  1,  100.0,  120.000,  36.000
5037,  '1',  308.470,  -29.148,  157.010,  -34.240,  1.02000,  0,  370.160,  0.00000,  0.29910,  0.00000,  0.00000,  1.00000,  1,  100.0,  308.470,  92.540
5038,  '1',  308.470,  -27.404,  157.010,  -34.240,  1.02000,  0,  370.160,  0.00000,  0.12330,  0.00000,  0.00000,  1.00000,  1,  100.0,  308.470,  92.540
5039,  '1',  308.470,  -34.240,  157.010,  -34.240,  1.02000,  0,  370.160,  0.00000,  0.21470,  0.00000,  0.00000,  1.00000,  1,  100.0,  308.470,  92.540
5040,  '1',  308.470,  -21.176,  157.010,  -34.240,  1.02000,  0,  370.160,  0.00000,  0.19240,  0.00000,  0.00000,  1.00000,  1,  100.0,  308.470,  92.540
5041,  '1',  308.470,  -33.350,  157.010,  -34.240,  1.02000,  0,  370.160,  0.00000,  0.11590,  0.00000,  0.00000,  1.00000,  1,  100.0,  308.470,  92.540
5042,  '1',  308.470,  -24.779,  157.010,  -34.240,  1.02000,  0,  370.160,  0.00000,  0.19130,  0.00000,  0.00000,  1.00000,  1,  100.0,  308.470,  92.540
5057,  '1',  317.350,  -35.230,  161.530,  -35.230,  1.00000,  0,  380.820,  0.00000,  0.19130,  0.00000,  0.00000,  1.00000,  1,  100.0,  317.350,  95.200
5058,  '1',  317.350,  -35.230,  161.530,  -35.230,  1.00000,  0,  380.820,  0.00000,  0.29820,  0.00000,  0.00000,  1.00000,  1,  100.0,  317.350,  95.200
5067,  '1',  438.270,  19.572,  223.080,  -48.650,  1.03000,  0,  525.920,  0.00000,  0.32610,  0.00000,  0.00000,  1.00000,  1,  100.0,  438.270,  131.480
5068,  '1',  438.270,  17.263,  223.080,  -48.650,  1.03000,  0,  525.920,  0.00000,  0.11690,  0.00000,  0.00000,  1.00000,  1,  100.0,  438.270,  131.480
5069,  '1',  438.270,  16.040,  223.080,  -48.650,  1.03000,  0,  525.920,  0.00000,  0.10560,  0.00000,  0.00000,  1.00000,  1,  100.0,  438.270,  131.480
5166,  '1',  73.370,  33.935,  64.390,  -14.040,  1.04000,  0,  151.800,  0.00000,  0.13910,  0.00000,  0.00000,  1.00000,  1,  100.0,  126.500,  37.950
5198,  '1',  60.834,  -21.600,  31.950,  -21.600,  1.00000,  0,  180.000,  0.00000,  1.00000,  0.00000,  0.00000,  1.00000,  1,  100.0,  150.000,  45.000
5206,  '1',  213.860,  -27.600,  126.570,  -27.600,  1.01000,  0,  298.400,  0.00000,  0.11980,  0.00000,  0.00000,  1.00000,  1,  100.0,  248.670,  74.600
5207,  '1',  213.860,  -27.600,  126.570,  -27.600,  1.01000,  0,  298.400,  0.00000,  0.18090,  0.00000,  0.00000,  1.00000,  1,  100.0,  248.670,  74.600
5208,  '1',  213.860,  -27.600,  126.570,  -27.600,  1.01000,  0,  298.400,  0.00000,  0.10560,  0.00000,  0.00000,  1.00000,  1,  100.0,  248.670,  74.600
5238,  '1',  91.251,  -32.400,  47.930,  -32.400,  1.00000,  0,  270.000,  0.00000,  1.00000,  0.00000,  0.00000,  1.00000,  1,  100.0,  225.000,  67.500
5243,  '1',  60.834,  -21.600,  31.950,  -21.600,  1.00000,  0,  180.000,  0.00000,  1.00000,  0.00000,  0.00000,  1.00000,  1,  100.0,  150.000,  45.000
5262,  '1',  1215.000,  -99.630,  447.120,  -99.630,  1.01000,  0,  1458.00,  0.00000,  0.26310,  0.00000,  0.00000,  1.00000,  1,  100.0,  1215.00,  364.500
5263,  '1',  1215.000,  -99.630,  447.120,  -99.630,  1.01000,  0,  1458.00,  0.00000,  0.16260,  0.00000,  0.00000,  1.00000,  1,  100.0,  1215.00,  364.500
5281,  '1',  155.280,  -29.720,  136.280,  -29.720,  1.00000,  0,  321.280,  0.00000,  0.10660,  0.00000,  0.00000,  1.00000,  1,  100.0,  267.730,  80.320
5282,  '1',  155.280,  -29.720,  136.280,  -29.720,  1.00000,  0,  321.280,  0.00000,  0.23940,  0.00000,  0.00000,  1.00000,  1,  100.0,  267.730,  80.320
5283,  '1',  155.280,  -29.720,  136.280,  -29.720,  1.00000,  0,  321.280,  0.00000,  0.10650,  0.00000,  0.00000,  1.00000,  1,  100.0,  267.730,  80.320
5298,  '1',  66.700,  58.530,  58.530,  -12.760,  1.04000,  0,  138.000,  0.00000,  0.13260,  0.00000,  0.00000,  1.00000,  1,  100.0,  115.000,  34.500
5299,  '1',  66.700,  41.982,  58.530,  -12.760,  1.04000,  0,  138.000,  0.00000,  0.32280,  0.00000,  0.00000,  1.00000,  1,  100.0,  115.000,  34.500
5300,  '1',  66.700,  50.598,  58.530,  -12.760,  1.04000,  0,  138.000,  0.00000,  0.21910,  0.00000,  0.00000,  1.00000,  1,  100.0,  115.000,  34.500
5302,  '1',  333.900,  57.027,  236.050,  -51.480,  1.04000,  0,  556.500,  0.00000,  0.13300,  0.00000,  0.00000,  1.00000,  1,  100.0,  463.750,  139.130
5303,  '1',  333.900,  74.319,  236.050,  -51.480,  1.04000,  0,  556.500,  0.00000,  0.17920,  0.00000,  0.00000,  1.00000,  1,  100.0,  463.750,  139.130
5319,  '1',  152.420,  -29.170,  133.770,  -29.170,  1.01000,  0,  315.360,  0.00000,  0.25070,  0.00000,  0.00000,  1.00000,  1,  100.0,  262.800,  78.840
5320,  '1',  152.420,  -29.170,  133.770,  -29.170,  1.01000,  0,  315.360,  0.00000,  0.28140,  0.00000,  0.00000,  1.00000,  1,  100.0,  262.800,  78.840
5321,  '1',  152.420,  -29.170,  133.770,  -29.170,  1.01000,  0,  315.360,  0.00000,  0.12810,  0.00000,  0.00000,  1.00000,  1,  100.0,  262.800,  78.840
5324,  '1',  284.070,  55.549,  144.590,  -31.530,  1.04000,  0,  340.880,  0.00000,  0.21670,  0.00000,  0.00000,  1.00000,  1,  100.0,  284.070,  85.220
5325,  '1',  284.070,  57.611,  144.590,  -31.530,  1.04000,  0,  340.880,  0.00000,  0.15030,  0.00000,  0.00000,  1.00000,  1,  100.0,  284.070,  85.220
5326,  '1',  284.070,  144.590,  144.590,  -31.530,  1.04000,  0,  340.880,  0.00000,  0.18810,  0.00000,  0.00000,  1.00000,  1,  100.0,  284.070,  85.220
5343,  '1',  47.843,  24.482,  79.667,  -3.430,  1.04000,  0,  84.000,  0.00000,  0.24140,  0.00000,  0.00000,  1.00000,  1,  100.0,  207.500,  0.000
5360,  '1',  262.250,  -87.526,  469.730,  -122.980,  1.01000,  0,  1209.60,  0.00000,  0.25510,  0.00000,  0.00000,  1.00000,  1,  100.0,  1008.00,  302.400
5364,  '1',  153.600,  -23.680,  108.590,  -23.680,  1.00000,  0,  256.000,  0.00000,  0.13030,  0.00000,  0.00000,  1.00000,  1,  100.0,  213.330,  64.000
5365,  '1',  153.600,  -23.680,  108.590,  -23.680,  1.00000,  0,  256.000,  0.00000,  0.11650,  0.00000,  0.00000,  1.00000,  1,  100.0,  213.330,  64.000
5366,  '1',  153.600,  -23.680,  108.590,  -23.680,  1.00000,  0,  256.000,  0.00000,  0.15490,  0.00000,  0.00000,  1.00000,  1,  100.0,  213.330,  64.000
5367,  '1',  153.600,  -23.680,  108.590,  -23.680,  1.00000,  0,  256.000,  0.00000,  0.10020,  0.00000,  0.00000,  1.00000,  1,  100.0,  213.330,  64.000
5368,  '1',  153.600,  -23.680,  108.590,  -23.680,  1.00000,  0,  256.000,  0.00000,  0.36180,  0.00000,  0.00000,  1.00000,  1,  100.0,  213.330,  64.000
5369,  '1',  153.600,  -23.680,  108.590,  -23.680,  1.00000,  0,  256.000,  0.00000,  0.24440,  0.00000,  0.00000,  1.00000,  1,  100.0,  213.330,  64.000
5382,  '1',  179.740,  96.206,  106.380,  -23.200,  1.04000,  0,  250.800,  0.00000,  0.24770,  0.00000,  0.00000,  1.00000,  1,  100.0,  209.000,  62.700
5383,  '1',  179.740,  84.793,  106.380,  -23.200,  1.04000,  0,  250.800,  0.00000,  0.39820,  0.00000,  0.00000,  1.00000,  1,  100.0,  209.000,  62.700
5399,  '1',  67.161,  2.824,  35.270,  -23.850,  1.04000,  0,  198.720,  0.00000,  1.00000,  0.00000,  0.00000,  1.00000,  1,  100.0,  165.600,  49.680
5415,  '1',  70.760,  -13.540,  62.100,  -13.540,  1.00000,  0,  146.400,  0.00000,  0.14030,  0.00000,  0.00000,  1.00000,  1,  100.0,  122.000,  36.600
5416,  '1',  70.760,  -13.540,  62.100,  -13.540,  1.00000,  0,  146.400,  0.00000,  0.26480,  0.00000,  0.00000,  1.00000,  1,  100.0,  122.000,  36.600
5417,  '1',  70.760,  -13.540,  62.100,  -13.540,  1.00000,  0,  146.400,  0.00000,  0.16960,  0.00000,  0.00000,  1.00000,  1,  100.0,  122.000,  36.600
5418,  '1',  68.900,  -13.190,  60.470,  -13.190,  1.00000,  0,  142.560,  0.00000,  0.34000,  0.00000,  0.00000,  1.00000,  1,  100.0,  118.800,  35.640
5419,  '1',  68.900,  -13.190,  60.470,  -13.190,  1.00000,  0,  142.560,  0.00000,  0.16420,  0.00000,  0.00000,  1.00000,  1,  100.0,  118.800,  35.640
5444,  '1',  1090.500,  -223.840,  1026.440,  -223.840,  1.01000,  0,  2419.92,  0.00000,  0.34260,  0.00000,  0.00000,  1.00000,  1,  100.0,  2016.60,  604.980
6006,  '1',  153.360,  18.464,  108.420,  -23.640,  1.04000,  0,  255.600,  0.00000,  0.18770,  0.00000,  0.00000,  1.00000,  1,  100.0,  213.000,  63.900
6007,  '1',  426.000,  31.451,  216.830,  -47.290,  1.04000,  0,  511.200,  0.00000,  0.13420,  0.00000,  0.00000,  1.00000,  1,  100.0,  426.000,  127.800
6008,  '1',  142.800,  16.730,  100.950,  -22.010,  1.04000,  0,  238.000,  0.00000,  0.20160,  0.00000,  0.00000,  1.00000,  1,  100.0,  198.330,  59.500
6009,  '1',  142.800,  10.639,  100.950,  -22.010,  1.04000,  0,  238.000,  0.00000,  0.18430,  0.00000,  0.00000,  1.00000,  1,  100.0,  198.330,  59.500
6010,  '1',  142.800,  13.506,  100.950,  -22.010,  1.04000,  0,  238.000,  0.00000,  0.15620,  0.00000,  0.00000,  1.00000,  1,  100.0,  198.330,  59.500
6042,  '1',  73.828,  10.785,  122.908,  -5.290,  1.04000,  0,  129.600,  0.00000,  0.18770,  0.00000,  0.00000,  1.00000,  1,  100.0,  320.200,  0.000
6069,  '1',  130.590,  -1.202,  92.320,  -20.130,  1.03000,  0,  217.640,  0.00000,  0.22480,  0.00000,  0.00000,  1.00000,  1,  100.0,  181.370,  54.410
6070,  '1',  130.590,  0.536,  92.320,  -20.130,  1.03000,  0,  217.640,  0.00000,  0.24660,  0.00000,  0.00000,  1.00000,  1,  100.0,  181.370,  54.410
6071,  '1',  130.590,  -0.618,  92.320,  -20.130,  1.03000,  0,  217.640,  0.00000,  0.15280,  0.00000,  0.00000,  1.00000,  1,  100.0,  181.370,  54.410
6072,  '1',  130.590,  0.687,  92.320,  -20.130,  1.03000,  0,  217.640,  0.00000,  0.19250,  0.00000,  0.00000,  1.00000,  1,  100.0,  181.370,  54.410
6073,  '1',  130.590,  -0.583,  92.320,  -20.130,  1.03000,  0,  217.640,  0.00000,  0.14260,  0.00000,  0.00000,  1.00000,  1,  100.0,  181.370,  54.410
6074,  '1',  130.590,  -1.426,  92.320,  -20.130,  1.03000,  0,  217.640,  0.00000,  0.11150,  0.00000,  0.00000,  1.00000,  1,  100.0,  181.370,  54.410
6078,  '1',  169.000,  -68.730,  262.510,  -68.730,  1.00000,  0,  676.000,  0.00000,  0.28900,  0.00000,  0.00000,  1.00000,  1,  100.0,  563.330,  169.000
6079,  '1',  169.000,  -68.730,  262.510,  -68.730,  1.00000,  0,  676.000,  0.00000,  0.25330,  0.00000,  0.00000,  1.00000,  1,  100.0,  563.330,  169.000
6080,  '1',  169.000,  -68.730,  262.510,  -68.730,  1.00000,  0,  676.000,  0.00000,  0.32510,  0.00000,  0.00000,  1.00000,  1,  100.0,  563.330,  169.000
6106,  '1',  70.180,  61.590,  61.590,  -13.430,  1.04000,  0,  145.200,  0.00000,  0.12010,  0.00000,  0.00000,  1.00000,  1,  100.0,  121.000,  36.300
6110,  '1',  177.180,  45.989,  275.220,  -72.050,  1.04000,  0,  708.720,  0.00000,  0.16800,  0.00000,  0.00000,  1.00000,  1,  100.0,  590.600,  177.180
6111,  '1',  198.450,  46.672,  308.260,  -80.700,  1.04000,  0,  793.800,  0.00000,  0.21900,  0.00000,  0.00000,  1.00000,  1,  100.0,  661.500,  198.450
6145,  '1',  446.000,  13.418,  227.010,  -49.510,  1.03000,  0,  535.200,  0.00000,  0.14770,  0.00000,  0.00000,  1.00000,  1,  100.0,  446.000,  133.800
6146,  '1',  446.000,  13.442,  227.010,  -49.510,  1.03000,  0,  535.200,  0.00000,  0.11950,  0.00000,  0.00000,  1.00000,  1,  100.0,  446.000,  133.800
6147,  '1',  307.299,  6.581,  474.390,  -103.450,  1.03000,  0,  1118.40,  0.00000,  0.10440,  0.00000,  0.00000,  1.00000,  1,  100.0,  932.000,  279.600
6148,  '1',  216.600,  5.549,  367.500,  -80.140,  1.03000,  0,  866.400,  0.00000,  0.23830,  0.00000,  0.00000,  1.00000,  1,  100.0,  722.000,  216.600
6149,  '1',  216.600,  11.960,  367.500,  -80.140,  1.03000,  0,  866.400,  0.00000,  0.12770,  0.00000,  0.00000,  1.00000,  1,  100.0,  722.000,  216.600
6164,  '1',  169.240,  6.241,  119.640,  -26.090,  1.03000,  0,  282.060,  0.00000,  0.30070,  0.00000,  0.00000,  1.00000,  1,  100.0,  235.050,  70.520
6165,  '1',  169.240,  4.980,  119.640,  -26.090,  1.03000,  0,  282.060,  0.00000,  0.18390,  0.00000,  0.00000,  1.00000,  1,  100.0,  235.050,  70.520
6166,  '1',  169.240,  11.995,  119.640,  -26.090,  1.03000,  0,  282.060,  0.00000,  0.25100,  0.00000,  0.00000,  1.00000,  1,  100.0,  235.050,  70.520
6167,  '1',  169.240,  6.764,  119.640,  -26.090,  1.03000,  0,  282.060,  0.00000,  0.13970,  0.00000,  0.00000,  1.00000,  1,  100.0,  235.050,  70.520
6213,  '1',  41.018,  0.301,  68.286,  -2.940,  1.04000,  0,  72.000,  0.00000,  0.33650,  0.00000,  0.00000,  1.00000,  1,  100.0,  177.900,  0.000
6214,  '1',  127.344,  0.941,  212.059,  -9.130,  1.04000,  0,  223.600,  0.00000,  0.21900,  0.00000,  0.00000,  1.00000,  1,  100.0,  552.300,  0.000
6215,  '1',  127.344,  2.231,  212.059,  -9.130,  1.04000,  0,  223.600,  0.00000,  0.20110,  0.00000,  0.00000,  1.00000,  1,  100.0,  552.300,  0.000
6216,  '1',  127.344,  1.081,  212.059,  -9.130,  1.04000,  0,  223.600,  0.00000,  0.37760,  0.00000,  0.00000,  1.00000,  1,  100.0,  552.300,  0.000
6243,  '1',  131.760,  36.362,  93.150,  -20.310,  1.04000,  0,  219.600,  0.00000,  0.28800,  0.00000,  0.00000,  1.00000,  1,  100.0,  183.000,  54.900
6244,  '1',  298.000,  45.427,  151.680,  -33.080,  1.04000,  0,  357.600,  0.00000,  0.12500,  0.00000,  0.00000,  1.00000,  1,  100.0,  298.000,  89.400
6245,  '1',  298.000,  52.130,  151.680,  -33.080,  1.04000,  0,  357.600,  0.00000,  0.24960,  0.00000,  0.00000,  1.00000,  1,  100.0,  298.000,  89.400
6246,  '1',  298.000,  97.429,  151.680,  -33.080,  1.04000,  0,  357.600,  0.00000,  0.16990,  0.00000,  0.00000,  1.00000,  1,  100.0,  298.000,  89.400
6247,  '1',  132.000,  79.848,  93.320,  -20.350,  1.04000,  0,  220.000,  0.00000,  0.11730,  0.00000,  0.00000,  1.00000,  1,  100.0,  183.330,  55.000
6248,  '1',  132.000,  40.348,  93.320,  -20.350,  1.04000,  0,  220.000,  0.00000,  0.27550,  0.00000,  0.00000,  1.00000,  1,  100.0,  183.330,  55.000
6249,  '1',  132.000,  27.484,  93.320,  -20.350,  1.04000,  0,  220.000,  0.00000,  0.17480,  0.00000,  0.00000,  1.00000,  1,  100.0,  183.330,  55.000
6257,  '1',  139.680,  -21.530,  98.750,  -21.530,  1.02000,  0,  232.800,  0.00000,  0.15520,  0.00000,  0.00000,  1.00000,  1,  100.0,  194.000,  58.200
6258,  '1',  139.680,  -21.530,  98.750,  -21.530,  1.02000,  0,  232.800,  0.00000,  0.26310,  0.00000,  0.00000,  1.00000,  1,  100.0,  194.000,  58.200
6260,  '1',  185.040,  -28.530,  130.810,  -28.530,  1.02000,  0,  308.400,  0.00000,  0.11970,  0.00000,  0.00000,  1.00000,  1,  100.0,  257.000,  77.100
6295,  '1',  148.490,  -22.890,  104.970,  -22.890,  1.02000,  0,  247.480,  0.00000,  0.21970,  0.00000,  0.00000,  1.00000,  1,  100.0,  206.230,  61.870
6296,  '1',  148.490,  -22.890,  104.970,  -22.890,  1.02000,  0,  247.480,  0.00000,  0.25670,  0.00000,  0.00000,  1.00000,  1,  100.0,  206.230,  61.870
6297,  '1',  148.500,  -22.890,  104.970,  -22.890,  1.02000,  0,  247.480,  0.00000,  0.14170,  0.00000,  0.00000,  1.00000,  1,  100.0,  206.230,  61.900
6302,  '1',  178.020,  -27.440,  125.850,  -27.440,  1.00000,  0,  296.700,  0.00000,  0.25960,  0.00000,  0.00000,  1.00000,  1,  100.0,  247.250,  74.180
6303,  '1',  178.020,  -27.440,  125.850,  -27.440,  1.00000,  0,  296.700,  0.00000,  0.27270,  0.00000,  0.00000,  1.00000,  1,  100.0,  247.250,  74.180
6304,  '1',  178.020,  -27.440,  125.850,  -27.440,  1.00000,  0,  296.700,  0.00000,  0.11710,  0.00000,  0.00000,  1.00000,  1,  100.0,  247.250,  74.180
6305,  '1',  178.020,  -27.440,  125.850,  -27.440,  1.00000,  0,  296.700,  0.00000,  0.12770,  0.00000,  0.00000,  1.00000,  1,  100.0,  247.250,  74.180
6349,  '1',  624.360,  262.256,  369.540,  -80.580,  1.04000,  0,  871.200,  0.00000,  0.16290,  0.00000,  0.00000,  1.00000,  1,  100.0,  726.000,  217.800
7005,  '1',  117.360,  25.230,  82.970,  -18.090,  1.04000,  0,  195.600,  0.00000,  0.13000,  0.00000,  0.00000,  1.00000,  1,  100.0,  163.000,  48.900
7006,  '1',  117.360,  44.902,  82.970,  -18.090,  1.04000,  0,  195.600,  0.00000,  0.19150,  0.00000,  0.00000,  1.00000,  1,  100.0,  163.000,  48.900
7007,  '1',  117.360,  29.350,  82.970,  -18.090,  1.04000,  0,  195.600,  0.00000,  0.34300,  0.00000,  0.00000,  1.00000,  1,  100.0,  163.000,  48.900
7008,  '1',  117.360,  27.472,  82.970,  -18.090,  1.04000,  0,  195.600,  0.00000,  0.21570,  0.00000,  0.00000,  1.00000,  1,  100.0,  163.000,  48.900
7009,  '1',  117.360,  24.799,  82.970,  -18.090,  1.04000,  0,  195.600,  0.00000,  0.13060,  0.00000,  0.00000,  1.00000,  1,  100.0,  163.000,  48.900
7015,  '1',  0.000,  0.000,  2.040,  -0.440,  1.04000,  0,  4.800,  0.00000,  0.22520,  0.00000,  0.00000,  1.00000,  0,  100.0,  4.000,  1.200
7045,  '1',  135.680,  93.639,  95.920,  -20.920,  1.03000,  0,  226.140,  0.00000,  0.12400,  0.00000,  0.00000,  1.00000,  1,  100.0,  188.450,  56.530
7046,  '1',  135.680,  95.920,  95.920,  -20.920,  1.03000,  0,  226.140,  0.00000,  0.10650,  0.00000,  0.00000,  1.00000,  1,  100.0,  188.450,  56.530
7061,  '1',  66.640,  12.629,  58.480,  -12.750,  1.00000,  0,  137.880,  0.00000,  0.12410,  0.00000,  0.00000,  1.00000,  1,  100.0,  114.900,  34.470
7062,  '1',  66.640,  13.716,  58.480,  -12.750,  1.00000,  0,  137.880,  0.00000,  0.19500,  0.00000,  0.00000,  1.00000,  1,  100.0,  114.900,  34.470
7063,  '1',  66.640,  12.533,  58.480,  -12.750,  1.00000,  0,  137.880,  0.00000,  0.15790,  0.00000,  0.00000,  1.00000,  1,  100.0,  114.900,  34.470
7064,  '1',  66.640,  16.869,  58.480,  -12.750,  1.00000,  0,  137.880,  0.00000,  0.22800,  0.00000,  0.00000,  1.00000,  1,  100.0,  114.900,  34.470
7065,  '1',  66.640,  14.962,  58.480,  -12.750,  1.00000,  0,  137.880,  0.00000,  0.22800,  0.00000,  0.00000,  1.00000,  1,  100.0,  114.900,  34.470
7066,  '1',  66.640,  14.012,  58.480,  -12.750,  1.00000,  0,  137.880,  0.00000,  0.34800,  0.00000,  0.00000,  1.00000,  1,  100.0,  114.900,  34.470
7079,  '1',  196.640,  22.772,  116.380,  -25.380,  1.04000,  0,  274.380,  0.00000,  0.13630,  0.00000,  0.00000,  1.00000,  1,  100.0,  228.650,  68.590
7080,  '1',  196.640,  18.078,  116.380,  -25.380,  1.04000,  0,  274.380,  0.00000,  0.17160,  0.00000,  0.00000,  1.00000,  1,  100.0,  228.650,  68.590
...
 0 /End of Generator data, Begin Branch data
1004,  1023,  '99',  0.01326,  0.30383,  0.00000,  0.00,  0.00,  0.00,  0.00000,  0.000,  0.00000,  0.00000,  0.00000,  0.00000,  1
1004,  1063,  '99',  0.87111,  4.40214,  0.00000,  0.00,  0.00,  0.00,  0.00000,  0.000,  0.00000,  0.00000,  0.00000,  0.00000,  1
1004,  2062,  '99',  0.61917,  3.22890,  0.00000,  0.00,  0.00,  0.00,  0.00000,  0.000,  0.00000,  0.00000,  0.00000,  0.00000,  1
1004,  2100,  '99',  0.04203,  0.54368,  0.00000,  0.00,  0.00,  0.00,  0.00000,  0.000,  0.00000,  0.00000,  0.00000,  0.00000,  1
1004,  2127,  '99',  0.07189,  0.51404,  0.00000,  0.00,  0.00,  0.00,  0.00000,  0.000,  0.00000,  0.00000,  0.00000,  0.00000,  1
1004,  3039,  '99',  0.02956,  0.30666,  0.00000,  0.00,  0.00,  0.00,  0.00000,  0.000,  0.00000,  0.00000,  0.00000,  0.00000,  1
1004,  3045,  '99',  0.70777,  4.10608,  0.00000,  0.00,  0.00,  0.00,  0.00000,  0.000,  0.00000,  0.00000,  0.00000,  0.00000,  1
1004,  3048,  '99',  0.04124,  0.29098,  0.00000,  0.00,  0.00,  0.00,  0.00000,  0.000,  0.00000,  0.00000,  0.00000,  0.00000,  1
1004,  3055,  '99',  0.73083,  3.82739,  0.00000,  0.00,  0.00,  0.00,  0.00000,  0.000,  0.00000,  0.00000,  0.00000,  0.00000,  1
1004,  3081,  '99',  0.03707,  0.39796,  0.00000,  0.00,  0.00,  0.00,  0.00000,  0.000,  0.00000,  0.00000,  0.00000,  0.00000,  1
1004,  3098,  '99',  0.02592,  0.42112,  0.00000,  0.00,  0.00,  0.00,  0.00000,  0.000,  0.00000,  0.00000,  0.00000,  0.00000,  1
1004,  3122,  '99',  0.46071,  3.11830,  0.00000,  0.00,  0.00,  0.00,  0.00000,  0.000,  0.00000,  0.00000,  0.00000,  0.00000,  1
1004,  5399,  '99',  0.60010,  4.21177,  0.00000,  0.00,  0.00,  0.00,  0.00000,  0.000,  0.00000,  0.00000,  0.00000,  0.00000,  1
1021,  1033,  '99',  0.20674,  3.42417,  0.00000,  0.00,  0.00,  0.00,  0.00000,  0.000,  0.00000,  0.00000,  0.00000,  0.00000,  1
1021,  1063,  '99',  0.05549,  0.82120,  0.00000,  0.00,  0.00,  0.00,  0.00000,  0.000,  0.00000,  0.00000,  0.00000,  0.00000,  1
1021,  1072,  '99',  0.51575,  4.23504,  0.00000,  0.00,  0.00,  0.00,  0.00000,  0.000,  0.00000,  0.00000,  0.00000,  0.00000,  1
1021,  1075,  '99',  0.48006,  4.94354,  0.00000,  0.00,  0.00,  0.00,  0.00000,  0.000,  0.00000,  0.00000,  0.00000,  0.00000,  1
1021,  1076,  '99',  0.21604,  2.45000,  0.00000,  0.00,  0.00,  0.00,  0.00000,  0.000,  0.00000,  0.00000,  0.00000,  0.00000,  1
1021,  1081,  '99',  0.16494,  1.93889,  0.00000,  0.00,  0.00,  0.00,  0.00000,  0.000,  0.00000,  0.00000,  0.00000,  0.00000,  1
1021,  3045,  '99',  0.21242,  3.63428,  0.00000,  0.00,  0.00,  0.00,  0.00000,  0.000,  0.00000,  0.00000,  0.00000,  0.00000,  1
1021,  3048,  '99',  0.12247,  0.93750,  0.00000,  0.00,  0.00,  0.00,  0.00000,  0.000,  0.00000,  0.00000,  0.00000,  0.00000,  1
1021,  3061,  '99',  -0.00129,  4.29187,  0.00000,  0.00,  0.00,  0.00,  0.00000,  0.000,  0.00000,  0.00000,  0.00000,  0.00000,  1
1021,  3062,  '99',  0.02481,  2.16903,  0.00000,  0.00,  0.00,  0.00,  0.00000,  0.000,  0.00000,  0.00000,  0.00000,  0.00000,  1
1021,  3063,  '99',  0.03288,  3.08501,  0.00000,  0.00,  0.00,  0.00,  0.00000,  0.000,  0.00000,  0.00000,  0.00000,  0.00000,  1
1023,  2100,  '99',  0.06743,  2.97219,  0.00000,  0.00,  0.00,  0.00,  0.00000,  0.000,  0.00000,  0.00000,  0.00000,  0.00000,  1
1023,  2127,  '99',  0.23422,  2.85309,  0.00000,  0.00,  0.00,  0.00,  0.00000,  0.000,  0.00000,  0.00000,  0.00000,  0.00000,  1
1023,  3048,  '99',  0.72341,  4.52280,  0.00000,  0.00,  0.00,  0.00,  0.00000,  0.000,  0.00000,  0.00000,  0.00000,  0.00000,  1
1023,  3098,  '99',  0.01685,  2.24827,  0.00000,  0.00,  0.00,  0.00,  0.00000,  0.000,  0.00000,  0.00000,  0.00000,  0.00000,  1
1033,  1048,  '99',  0.42269,  2.12717,  0.00000,  0.00,  0.00,  0.00,  0.00000,  0.000,  0.00000,  0.00000,  0.00000,  0.00000,  1
1033,  1049,  '99',  0.65171,  3.82696,  0.00000,  0.00,  0.00,  0.00,  0.00000,  0.000,  0.00000,  0.00000,  0.00000,  0.00000,  1
1033,  1053,  '99',  0.49488,  2.85959,  0.00000,  0.00,  0.00,  0.00,  0.00000,  0.000,  0.00000,  0.00000,  0.00000,  0.00000,  1
1033,  1063,  '99',  -0.01224,  3.24664,  0.00000,  0.00,  0.00,  0.00,  0.00000,  0.000,  0.00000,  0.00000,  0.00000,  0.00000,  1
1033,  1070,  '99',  0.03827,  0.27199,  0.00000,  0.00,  0.00,  0.00,  0.00000,  0.000,  0.00000,  0.00000,  0.00000,  0.00000,  1
1033,  1081,  '99',  0.00299,  0.03079,  0.00000,  0.00,  0.00,  0.00,  0.00000,  0.000,  0.00000,  0.00000,  0.00000,  0.00000,  1
1033,  3048,  '99',  0.46442,  2.65603,  0.00000,  0.00,  0.00,  0.00,  0.00000,  0.000,  0.00000,  0.00000,  0.00000,  0.00000,  1
1033,  3062,  '99',  0.19450,  3.01134,  0.00000,  0.00,  0.00,  0.00,  0.00000,  0.000,  0.00000,  0.00000,  0.00000,  0.00000,  1
1033,  3063,  '99',  0.27330,  4.28321,  0.00000,  0.00,  0.00,  0.00,  0.00000,  0.000,  0.00000,  0.00000,  0.00000,  0.00000,  1
1033,  4026,  '99',  0.21827,  4.10606,  0.00000,  0.00,  0.00,  0.00,  0.00000,  0.000,  0.00000,  0.00000,  0.00000,  0.00000,  1
1033,  4115,  '99',  0.14078,  2.88477,  0.00000,  0.00,  0.00,  0.00,  0.00000,  0.000,  0.00000,  0.00000,  0.00000,  0.00000,  1
1033,  4116,  '99',  0.17787,  3.03385,  0.00000,  0.00,  0.00,  0.00,  0.00000,  0.000,  0.00000,  0.00000,  0.00000,  0.00000,  1
1048,  1049,  '99',  0.00208,  0.33614,  0.00000,  0.00,  0.00,  0.00,  0.00000,  0.000,  0.00000,  0.00000,  0.00000,  0.00000,  1
1048,  1053,  '99',  0.00223,  0.25128,  0.00000,  0.00,  0.00,  0.00,  0.00000,  0.000,  0.00000,  0.00000,  0.00000,  0.00000,  1
1048,  1070,  '99',  0.39487,  2.72096,  0.00000,  0.00,  0.00,  0.00,  0.00000,  0.000,  0.00000,  0.00000,  0.00000,  0.00000,  1
1048,  1072,  '99',  0.85218,  4.55409,  0.00000,  0.00,  0.00,  0.00,  0.00000,  0.000,  0.00000,  0.00000,  0.00000,  0.00000,  1
1048,  1076,  '99',  0.40377,  2.64027,  0.00000,  0.00,  0.00,  0.00,  0.00000,  0.000,  0.00000,  0.00000,  0.00000,  0.00000,  1
1048,  1081,  '99',  0.53155,  3.46970,  0.00000,  0.00,  0.00,  0.00,  0.00000,  0.000,  0.00000,  0.00000,  0.00000,  0.00000,  1
1048,  3048,  '99',  0.40153,  2.63695,  0.00000,  0.00,  0.00,  0.00,  0.00000,  0.000,  0.00000,  0.00000,  0.00000,  0.00000,  1
1049,  1053,  '99',  -0.00837,  0.44973,  0.00000,  0.00,  0.00,  0.00,  0.00000,  0.000,  0.00000,  0.00000,  0.00000,  0.00000,  1
1049,  1070,  '99',  0.57272,  4.88807,  0.00000,  0.00,  0.00,  0.00,  0.00000,  0.000,  0.00000,  0.00000,  0.00000,  0.00000,  1
1049,  1076,  '99',  0.59262,  4.74413,  0.00000,  0.00,  0.00,  0.00,  0.00000,  0.000,  0.00000,  0.00000,  0.00000,  0.00000,  1
1049,  3048,  '99',  0.58877,  4.73808,  0.00000,  0.00,  0.00,  0.00,  0.00000,  0.000,  0.00000,  0.00000,  0.00000,  0.00000,  1
1053,  1070,  '99',  0.43797,  3.65300,  0.00000,  0.00,  0.00,  0.00,  0.00000,  0.000,  0.00000,  0.00000,  0.00000,  0.00000,  1
1053,  1076,  '99',  0.45255,  3.54535,  0.00000,  0.00,  0.00,  0.00,  0.00000,  0.000,  0.00000,  0.00000,  0.00000,  0.00000,  1
1053,  1081,  '99',  0.00299,  0.02981,  0.00000,  0.00,  0.00,  0.00,  0.00000,  0.000,  0.00000,  0.00000,  0.00000,  0.00000,  1
1053,  3048,  '99',  0.44966,  3.54084,  0.00000,  0.00,  0.00,  0.00,  0.00000,  0.000,  0.00000,  0.00000,  0.00000,  0.00000,  1
1063,  1076,  '99',  0.31805,  3.17347,  0.00000,  0.00,  0.00,  0.00,  0.00000,  0.000,  0.00000,  0.00000,  0.00000,  0.00000,  1
1063,  1081,  '99',  0.35973,  3.12095,  0.00000,  0.00,  0.00,  0.00,  0.00000,  0.000,  0.00000,  0.00000,  0.00000,  0.00000,  1
1063,  3048,  '99',  0.16437,  1.27776,  0.00000,  0.00,  0.00,  0.00,  0.00000,  0.000,  0.00000,  0.00000,  0.00000,  0.00000,  1
1072,  1073,  '99',  0.13359,  1.23894,  0.00000,  0.00,  0.00,  0.00,  0.00000,  0.000,  0.00000,  0.00000,  0.00000,  0.00000,  1
1072,  1074,  '99',  0.06404,  1.18731,  0.00000,  0.00,  0.00,  0.00,  0.00000,  0.000,  0.00000,  0.00000,  0.00000,  0.00000,  1
1072,  1075,  '99',  0.04294,  0.95035,  0.00000,  0.00,  0.00,  0.00,  0.00000,  0.000,  0.00000,  0.00000,  0.00000,  0.00000,  1
1072,  1076,  '99',  0.01709,  0.47077,  0.00000,  0.00,  0.00,  0.00,  0.00000,  0.000,  0.00000,  0.00000,  0.00000,  0.00000,  1
1072,  1077,  '99',  0.07003,  1.14853,  0.00000,  0.00,  0.00,  0.00,  0.00000,  0.000,  0.00000,  0.00000,  0.00000,  0.00000,  1
1072,  1081,  '99',  0.02169,  0.62958,  0.00000,  0.00,  0.00,  0.00,  0.00000,  0.000,  0.00000,  0.00000,  0.00000,  0.00000,  1
1072,  3048,  '99',  0.01388,  0.49607,  0.00000,  0.00,  0.00,  0.00,  0.00000,  0.000,  0.00000,  0.00000,  0.00000,  0.00000,  1
1073,  1074,  '99',  0.16616,  1.80559,  0.00000,  0.00,  0.00,  0.00,  0.00000,  0.000,  0.00000,  0.00000,  0.00000,  0.00000,  1
1073,  1075,  '99',  0.12032,  1.44572,  0.00000,  0.00,  0.00,  0.00,  0.00000,  0.000,  0.00000,  0.00000,  0.00000,  0.00000,  1
1073,  1076,  '99',  0.05324,  0.71640,  0.00000,  0.00,  0.00,  0.00,  0.00000,  0.000,  0.00000,  0.00000,  0.00000,  0.00000,  1
1073,  1077,  '99',  0.17306,  1.74616,  0.00000,  0.00,  0.00,  0.00,  0.00000,  0.000,  0.00000,  0.00000,  0.00000,  0.00000,  1
1073,  1081,  '99',  0.06942,  0.95814,  0.00000,  0.00,  0.00,  0.00,  0.00000,  0.000,  0.00000,  0.00000,  0.00000,  0.00000,  1
1073,  3048,  '99',  0.04980,  0.75514,  0.00000,  0.00,  0.00,  0.00,  0.00000,  0.000,  0.00000,  0.00000,  0.00000,  0.00000,  1
1074,  1075,  '99',  0.04084,  1.38365,  0.00000,  0.00,  0.00,  0.00,  0.00000,  0.000,  0.00000,  0.00000,  0.00000,  0.00000,  1
1074,  1076,  '99',  0.01415,  0.68532,  0.00000,  0.00,  0.00,  0.00,  0.00000,  0.000,  0.00000,  0.00000,  0.00000,  0.00000,  1
1074,  1077,  '99',  0.07575,  1.67261,  0.00000,  0.00,  0.00,  0.00,  0.00000,  0.000,  0.00000,  0.00000,  0.00000,  0.00000,  1
...